/*--------------------------------*- C++ -*----------------------------------*\
| =========                 |                                                 |
| \\      /  F ield         | OpenFOAM: The Open Source CFD Toolbox           |
|  \\    /   O peration     | Version:  v2012                                 |
|   \\  /    A nd           | Website:  www.openfoam.com                      |
|    \\/     M anipulation  |                                                 |
\*---------------------------------------------------------------------------*/
FoamFile
{
    version     2.0;
    format      ascii;
    class       dictionary;
    object      blockMeshDict;
}
// * * * * * * * * * * * * * * * * * * * * * * * * * * * * * * * * * * * * * //

scale   1;

// Optimized Domain for Series60 (L=2.4m)
// x: -3.0 to 8.0
// y: -5.0 to 0.0 (Symmetry at 0)
// z: -4.0 to 2.5
// Layers: z=-1.0 (Deep), z=0 (Water), z=0.185 (Air), z=0.3 (Top)

vertices
(
    (-3 -5 -4)      // 0
    (8 -5 -4)       // 1
    (8 0 -4)        // 2
    (-3 0 -4)       // 3

    (-3 -5 -1.0)    // 4
    (8 -5 -1.0)     // 5
    (8 0 -1.0)      // 6
    (-3 0 -1.0)     // 7

    (-3 -5 0.185)   // 8 (Interface/Water Top)
    (8 -5 0.185)    // 9
    (8 0 0.185)     // 10
    (-3 0 0.185)    // 11

    (-3 -5 0.244)   // 12 (Air Layer 1)
    (8 -5 0.244)    // 13
    (8 0 0.244)     // 14
    (-3 0 0.244)    // 15
    
    (-3 -5 0.3)     // 16 (Air Layer 2)
    (8 -5 0.3)      // 17
    (8 0 0.3)       // 18
    (-3 0 0.3)      // 19

    (-3 -5 2.5)     // 20 (Atmosphere)
    (8 -5 2.5)      // 21
    (8 0 2.5)       // 22
    (-3 0 2.5)      // 23
);

blocks
(
    // Bottom Block (z: -4 to -1)
    hex (0 1 2 3 4 5 6 7) (60 25 15) simpleGrading (1 1 1)
    
    // Water Block (z: -1 to 0.185) - Note: 0.185 is typically "water level" in base? 
    // Wait, wigley had 0.185. stokes had 0.45?
    // Let's assume z=0 is DWL. 0.185 is distinct?
    // Using simple grading.
    hex (4 5 6 7 8 9 10 11) (60 25 8) simpleGrading (1 1 1)
    
    // Interface/Air Block (z: 0.185 to 0.244)
    hex (8 9 10 11 12 13 14 15) (60 25 4) simpleGrading (1 1 1)
    
    // Air Block (z: 0.244 to 0.3)
    hex (12 13 14 15 16 17 18 19) (60 25 4) simpleGrading (1 1 1)
    
    // Top Block (z: 0.3 to 2.5)
    hex (16 17 18 19 20 21 22 23) (60 25 15) simpleGrading (1 1 1)
);

edges
(
);

boundary
(
    atmosphere
    {
        type patch;
        faces
        (
            (20 21 22 23)
        );
    }
    inlet
    {
        type patch;
        faces
        (
            (0 4 3 7)
            (4 8 7 11)
            (8 12 11 15)
            (12 16 15 19)
            (16 20 19 23)
        );
    }
    outlet
    {
        type patch;
        faces
        (
            (1 5 2 6)
            (5 9 6 10)
            (9 13 10 14)
            (13 17 14 18)
            (17 21 18 22)
        );
    }
    bottom
    {
        type symmetryPlane;
        faces
        (
            (0 1 2 3)
        );
    }
    side
    {
        type symmetryPlane; // Outer side (y=-5)
        faces
        (
            (0 1 5 4)
            (4 5 9 8)
            (8 9 13 12)
            (12 13 17 16)
            (16 17 21 20)
        );
    }
    midPlane
    {
        type symmetry; // Inner side (y=0)
        faces
        (
            (3 2 6 7)
            (7 6 10 11)
            (11 10 14 15)
            (15 14 18 19)
            (19 18 22 23)
        );
    }
);

mergePatchPairs
(
);
